IBP
 OpenBabel12242514243D

 33 33  0  0  1  0  0  0  0  0999 V2000
    3.0723    0.4170   -3.0105 C   0  0  0  0  0  0  0  0  0  0  0  0
    2.5246    1.4199   -1.9829 C   0  0  0  0  0  0  0  0  0  0  0  0
    0.9936    1.3379   -1.9419 C   0  0  0  0  0  0  0  0  0  0  0  0
    3.1035    1.1568   -0.5738 C   0  0  0  0  0  0  0  0  0  0  0  0
    4.6077    1.2956   -0.5260 C   0  0  0  0  0  0  0  0  0  0  0  0
    5.2194    2.5253   -0.8171 C   0  0  0  0  0  0  0  0  0  0  0  0
    6.6103    2.6528   -0.7735 C   0  0  0  0  0  0  0  0  0  0  0  0
    7.4189    1.5530   -0.4388 C   0  0  0  0  0  0  0  0  0  0  0  0
    6.8014    0.3229   -0.1402 C   0  0  0  0  0  0  0  0  0  0  0  0
    5.4107    0.1967   -0.1837 C   0  0  0  0  0  0  0  0  0  0  0  0
    8.9310    1.7092   -0.3909 C   0  0  3  0  0  0  0  0  0  0  0  0
    9.4422    1.4076    1.0259 C   0  0  0  0  0  0  0  0  0  0  0  0
    9.6692    0.8592   -1.4171 C   0  0  0  0  0  0  0  0  0  0  0  0
    9.0378    0.0639   -2.3123 O   0  0  0  0  0  0  0  0  0  0  0  0
   10.8881    0.9207   -1.4598 O   0  0  0  0  0  0  0  0  0  0  0  0
    2.6476    0.6284   -4.0150 H   0  0  0  0  0  0  0  0  0  0  0  0
    2.8085   -0.6232   -2.7218 H   0  0  0  0  0  0  0  0  0  0  0  0
    4.1771    0.4973   -3.0864 H   0  0  0  0  0  0  0  0  0  0  0  0
    2.7995    2.4464   -2.3096 H   0  0  0  0  0  0  0  0  0  0  0  0
    0.6618    0.3252   -1.6264 H   0  0  0  0  0  0  0  0  0  0  0  0
    0.5704    1.5560   -2.9457 H   0  0  0  0  0  0  0  0  0  0  0  0
    0.5889    2.0857   -1.2269 H   0  0  0  0  0  0  0  0  0  0  0  0
    2.8001    0.1361   -0.2500 H   0  0  0  0  0  0  0  0  0  0  0  0
    2.6692    1.8808    0.1498 H   0  0  0  0  0  0  0  0  0  0  0  0
    4.6198    3.3886   -1.0763 H   0  0  0  0  0  0  0  0  0  0  0  0
    7.0549    3.6132   -1.0027 H   0  0  0  0  0  0  0  0  0  0  0  0
    7.3975   -0.5415    0.1228 H   0  0  0  0  0  0  0  0  0  0  0  0
    4.9621   -0.7615    0.0473 H   0  0  0  0  0  0  0  0  0  0  0  0
    9.1930    2.7677   -0.6130 H   0  0  0  0  0  0  0  0  0  0  0  0
    9.2538    0.3497    1.3059 H   0  0  0  0  0  0  0  0  0  0  0  0
    8.9370    2.0696    1.7617 H   0  0  0  0  0  0  0  0  0  0  0  0
   10.5352    1.5958    1.0905 H   0  0  0  0  0  0  0  0  0  0  0  0
    8.0788   -0.0077   -2.3924 H   0  0  0  0  0  0  0  0  0  0  0  0
  1  2  1  0  0  0  0
  1 16  1  0  0  0  0
  1 17  1  0  0  0  0
  1 18  1  0  0  0  0
  2  3  1  0  0  0  0
  2  4  1  0  0  0  0
  2 19  1  0  0  0  0
  3 20  1  0  0  0  0
  3 21  1  0  0  0  0
  3 22  1  0  0  0  0
  4  5  1  0  0  0  0
  4 23  1  0  0  0  0
  4 24  1  0  0  0  0
  5  6  2  0  0  0  0
  5 10  1  0  0  0  0
  6  7  1  0  0  0  0
  6 25  1  0  0  0  0
  7  8  2  0  0  0  0
  7 26  1  0  0  0  0
  8  9  1  0  0  0  0
  8 11  1  0  0  0  0
  9 10  2  0  0  0  0
  9 27  1  0  0  0  0
 10 28  1  0  0  0  0
 11 12  1  0  0  0  0
 11 13  1  0  0  0  0
 11 29  1  0  0  0  0
 12 30  1  0  0  0  0
 12 31  1  0  0  0  0
 12 32  1  0  0  0  0
 13 14  1  0  0  0  0
 13 15  2  0  0  0  0
 14 33  1  0  0  0  0
M  END
>  <Energy>
100.885

$$$$
