REMARK SMILES CC(C)Cc1ccc([C@@H](C)C(=O)O)cc1
REMARK SMILES IDX 5 1 6 2 7 3 8 4 14 5 15 6 4 7 2 8 1 9 3 10 9 11 10 12 11 13
REMARK SMILES IDX 12 14 13 15
REMARK H PARENT 13 16
REMARK Flexibility Score: inf
ROOT
ATOM      1  C   UNL A   1       4.608   1.296  -0.526  1.00  0.00    -0.048 A 
ATOM      2  C   UNL A   1       5.219   2.525  -0.817  1.00  0.00     0.004 A 
ATOM      3  C   UNL A   1       6.610   2.653  -0.773  1.00  0.00     0.005 A 
ATOM      4  C   UNL A   1       7.419   1.553  -0.439  1.00  0.00    -0.034 A 
ATOM      5  C   UNL A   1       6.801   0.323  -0.140  1.00  0.00     0.005 A 
ATOM      6  C   UNL A   1       5.411   0.197  -0.184  1.00  0.00     0.004 A 
ENDROOT
BRANCH   1   7
ATOM      7  C   UNL A   1       3.103   1.157  -0.574  1.00  0.00     0.038 C 
BRANCH   7   8
ATOM      8  C   UNL A   1       2.525   1.420  -1.983  1.00  0.00    -0.013 C 
ATOM      9  C   UNL A   1       3.072   0.417  -3.010  1.00  0.00     0.008 C 
ATOM     10  C   UNL A   1       0.994   1.338  -1.942  1.00  0.00     0.008 C 
ENDBRANCH   7   8
ENDBRANCH   1   7
BRANCH   4  11
ATOM     11  C   UNL A   1       8.931   1.709  -0.391  1.00  0.00     0.126 C 
ATOM     12  C   UNL A   1       9.442   1.408   1.026  1.00  0.00     0.025 C 
BRANCH  11  13
ATOM     13  C   UNL A   1       9.669   0.859  -1.417  1.00  0.00     0.310 C 
ATOM     14  O   UNL A   1      10.888   0.921  -1.460  1.00  0.00    -0.252 OA
BRANCH  13  15
ATOM     15  O   UNL A   1       9.038   0.064  -2.312  1.00  0.00    -0.481 OA
ATOM     16  H   UNL A   1       8.079  -0.008  -2.392  1.00  0.00     0.296 HD
ENDBRANCH  13  15
ENDBRANCH  11  13
ENDBRANCH   4  11
TORSDOF 5
