MODEL 1
REMARK VINA RESULT:    -4.138      0.000      0.000
REMARK INTER + INTRA:          -5.728
REMARK INTER:                  -5.227
REMARK INTRA:                  -0.502
REMARK UNBOUND:                -0.502
REMARK SMILES CC(C)Cc1ccc([C@@H](C)C(=O)O)cc1
REMARK SMILES IDX 5 1 6 2 7 3 8 4 14 5 15 6 4 7 2 8 1 9 3 10 9 11 10 12 11 13
REMARK SMILES IDX 12 14 13 15
REMARK H PARENT 13 16
REMARK Flexibility Score: inf
ROOT
ATOM      1  C   UNL A   1      25.399  31.531  -6.390  1.00  0.00    -0.048 A 
ATOM      2  C   UNL A   1      24.206  31.300  -5.689  1.00  0.00     0.004 A 
ATOM      3  C   UNL A   1      22.981  31.711  -6.220  1.00  0.00     0.005 A 
ATOM      4  C   UNL A   1      22.923  32.360  -7.466  1.00  0.00    -0.034 A 
ATOM      5  C   UNL A   1      24.124  32.596  -8.163  1.00  0.00     0.005 A 
ATOM      6  C   UNL A   1      25.348  32.185  -7.630  1.00  0.00     0.004 A 
ENDROOT
BRANCH   1   7
ATOM      7  C   UNL A   1      26.725  31.086  -5.815  1.00  0.00     0.038 C 
BRANCH   7   8
ATOM      8  C   UNL A   1      27.746  32.241  -5.709  1.00  0.00    -0.013 C 
ATOM      9  C   UNL A   1      27.194  33.404  -4.871  1.00  0.00     0.008 C 
ATOM     10  C   UNL A   1      29.051  31.728  -5.088  1.00  0.00     0.008 C 
ENDBRANCH   7   8
ENDBRANCH   1   7
BRANCH   4  11
ATOM     11  C   UNL A   1      21.583  32.805  -8.030  1.00  0.00     0.126 C 
ATOM     12  C   UNL A   1      20.990  31.692  -8.908  1.00  0.00     0.025 C 
BRANCH  11  13
ATOM     13  C   UNL A   1      20.582  33.236  -6.966  1.00  0.00     0.310 C 
ATOM     14  O   UNL A   1      20.704  34.342  -6.462  1.00  0.00    -0.252 OA
BRANCH  13  15
ATOM     15  O   UNL A   1      19.583  32.439  -6.522  1.00  0.00    -0.481 OA
ATOM     16  H   UNL A   1      18.907  32.716  -5.891  1.00  0.00     0.296 HD
ENDBRANCH  13  15
ENDBRANCH  11  13
ENDBRANCH   4  11
TORSDOF 5
ENDMDL
MODEL 2
REMARK VINA RESULT:    -4.103      4.447      7.484
REMARK INTER + INTRA:          -5.684
REMARK INTER:                  -5.116
REMARK INTRA:                  -0.568
REMARK UNBOUND:                -0.502
REMARK SMILES CC(C)Cc1ccc([C@@H](C)C(=O)O)cc1
REMARK SMILES IDX 5 1 6 2 7 3 8 4 14 5 15 6 4 7 2 8 1 9 3 10 9 11 10 12 11 13
REMARK SMILES IDX 12 14 13 15
REMARK H PARENT 13 16
REMARK Flexibility Score: inf
ROOT
ATOM      1  C   UNL A   1      27.180  32.276  -5.452  1.00  0.00    -0.048 A 
ATOM      2  C   UNL A   1      28.438  31.657  -5.384  1.00  0.00     0.004 A 
ATOM      3  C   UNL A   1      29.597  32.423  -5.231  1.00  0.00     0.005 A 
ATOM      4  C   UNL A   1      29.522  33.824  -5.141  1.00  0.00    -0.034 A 
ATOM      5  C   UNL A   1      28.258  34.441  -5.218  1.00  0.00     0.005 A 
ATOM      6  C   UNL A   1      27.101  33.675  -5.371  1.00  0.00     0.004 A 
ENDROOT
BRANCH   1   7
ATOM      7  C   UNL A   1      25.926  31.448  -5.617  1.00  0.00     0.038 C 
BRANCH   7   8
ATOM      8  C   UNL A   1      24.823  32.187  -6.408  1.00  0.00    -0.013 C 
ATOM      9  C   UNL A   1      24.992  31.991  -7.923  1.00  0.00     0.008 C 
ATOM     10  C   UNL A   1      23.442  31.686  -5.970  1.00  0.00     0.008 C 
ENDBRANCH   7   8
ENDBRANCH   1   7
BRANCH   4  11
ATOM     11  C   UNL A   1      30.792  34.644  -4.979  1.00  0.00     0.126 C 
ATOM     12  C   UNL A   1      31.989  33.710  -4.742  1.00  0.00     0.025 C 
BRANCH  11  13
ATOM     13  C   UNL A   1      31.070  35.582  -6.146  1.00  0.00     0.310 C 
ATOM     14  O   UNL A   1      31.182  35.107  -7.266  1.00  0.00    -0.252 OA
BRANCH  13  15
ATOM     15  O   UNL A   1      31.238  36.917  -6.000  1.00  0.00    -0.481 OA
ATOM     16  H   UNL A   1      30.530  37.566  -6.097  1.00  0.00     0.296 HD
ENDBRANCH  13  15
ENDBRANCH  11  13
ENDBRANCH   4  11
TORSDOF 5
ENDMDL
MODEL 3
REMARK VINA RESULT:    -4.090      4.427      7.487
REMARK INTER + INTRA:          -5.667
REMARK INTER:                  -5.101
REMARK INTRA:                  -0.566
REMARK UNBOUND:                -0.502
REMARK SMILES CC(C)Cc1ccc([C@@H](C)C(=O)O)cc1
REMARK SMILES IDX 5 1 6 2 7 3 8 4 14 5 15 6 4 7 2 8 1 9 3 10 9 11 10 12 11 13
REMARK SMILES IDX 12 14 13 15
REMARK H PARENT 13 16
REMARK Flexibility Score: inf
ROOT
ATOM      1  C   UNL A   1      27.171  32.273  -5.454  1.00  0.00    -0.048 A 
ATOM      2  C   UNL A   1      27.116  33.672  -5.353  1.00  0.00     0.004 A 
ATOM      3  C   UNL A   1      28.287  34.418  -5.200  1.00  0.00     0.005 A 
ATOM      4  C   UNL A   1      29.539  33.780  -5.147  1.00  0.00    -0.034 A 
ATOM      5  C   UNL A   1      29.589  32.376  -5.241  1.00  0.00     0.005 A 
ATOM      6  C   UNL A   1      28.417  31.632  -5.393  1.00  0.00     0.004 A 
ENDROOT
BRANCH   1   7
ATOM      7  C   UNL A   1      25.903  31.466  -5.619  1.00  0.00     0.038 C 
BRANCH   7   8
ATOM      8  C   UNL A   1      24.819  32.217  -6.425  1.00  0.00    -0.013 C 
ATOM      9  C   UNL A   1      25.011  32.024  -7.938  1.00  0.00     0.008 C 
ATOM     10  C   UNL A   1      23.427  31.724  -6.012  1.00  0.00     0.008 C 
ENDBRANCH   7   8
ENDBRANCH   1   7
BRANCH   4  11
ATOM     11  C   UNL A   1      30.805  34.606  -4.976  1.00  0.00     0.126 C 
ATOM     12  C   UNL A   1      32.011  33.676  -4.777  1.00  0.00     0.025 C 
BRANCH  11  13
ATOM     13  C   UNL A   1      31.064  35.578  -6.120  1.00  0.00     0.310 C 
ATOM     14  O   UNL A   1      31.141  35.137  -7.256  1.00  0.00    -0.252 OA
BRANCH  13  15
ATOM     15  O   UNL A   1      31.250  36.906  -5.936  1.00  0.00    -0.481 OA
ATOM     16  H   UNL A   1      31.209  37.345  -5.078  1.00  0.00     0.296 HD
ENDBRANCH  13  15
ENDBRANCH  11  13
ENDBRANCH   4  11
TORSDOF 5
ENDMDL
MODEL 4
REMARK VINA RESULT:    -4.056      0.583      1.809
REMARK INTER + INTRA:          -5.624
REMARK INTER:                  -5.091
REMARK INTRA:                  -0.533
REMARK UNBOUND:                -0.502
REMARK SMILES CC(C)Cc1ccc([C@@H](C)C(=O)O)cc1
REMARK SMILES IDX 5 1 6 2 7 3 8 4 14 5 15 6 4 7 2 8 1 9 3 10 9 11 10 12 11 13
REMARK SMILES IDX 12 14 13 15
REMARK H PARENT 13 16
REMARK Flexibility Score: inf
ROOT
ATOM      1  C   UNL A   1      25.529  32.083  -6.984  1.00  0.00    -0.048 A 
ATOM      2  C   UNL A   1      25.211  32.731  -8.187  1.00  0.00     0.004 A 
ATOM      3  C   UNL A   1      23.882  33.032  -8.501  1.00  0.00     0.005 A 
ATOM      4  C   UNL A   1      22.844  32.692  -7.616  1.00  0.00    -0.034 A 
ATOM      5  C   UNL A   1      23.168  32.034  -6.413  1.00  0.00     0.005 A 
ATOM      6  C   UNL A   1      24.495  31.734  -6.101  1.00  0.00     0.004 A 
ENDROOT
BRANCH   1   7
ATOM      7  C   UNL A   1      26.966  31.758  -6.645  1.00  0.00     0.038 C 
BRANCH   7   8
ATOM      8  C   UNL A   1      27.337  32.142  -5.194  1.00  0.00    -0.013 C 
ATOM      9  C   UNL A   1      28.620  31.432  -4.736  1.00  0.00     0.008 C 
ATOM     10  C   UNL A   1      27.518  33.662  -5.087  1.00  0.00     0.008 C 
ENDBRANCH   7   8
ENDBRANCH   1   7
BRANCH   4  11
ATOM     11  C   UNL A   1      21.403  33.021  -7.973  1.00  0.00     0.126 C 
ATOM     12  C   UNL A   1      20.852  31.967  -8.945  1.00  0.00     0.025 C 
BRANCH  11  13
ATOM     13  C   UNL A   1      20.488  33.163  -6.764  1.00  0.00     0.310 C 
ATOM     14  O   UNL A   1      19.744  32.237  -6.481  1.00  0.00    -0.252 OA
BRANCH  13  15
ATOM     15  O   UNL A   1      20.430  34.283  -6.006  1.00  0.00    -0.481 OA
ATOM     16  H   UNL A   1      19.652  34.561  -5.508  1.00  0.00     0.296 HD
ENDBRANCH  13  15
ENDBRANCH  11  13
ENDBRANCH   4  11
TORSDOF 5
ENDMDL
MODEL 5
REMARK VINA RESULT:    -4.036      2.621      4.115
REMARK INTER + INTRA:          -5.599
REMARK INTER:                  -5.089
REMARK INTRA:                  -0.510
REMARK UNBOUND:                -0.502
REMARK SMILES CC(C)Cc1ccc([C@@H](C)C(=O)O)cc1
REMARK SMILES IDX 5 1 6 2 7 3 8 4 14 5 15 6 4 7 2 8 1 9 3 10 9 11 10 12 11 13
REMARK SMILES IDX 12 14 13 15
REMARK H PARENT 13 16
REMARK Flexibility Score: inf
ROOT
ATOM      1  C   UNL A   1      28.194  34.370  -5.755  1.00  0.00    -0.048 A 
ATOM      2  C   UNL A   1      27.861  34.359  -7.118  1.00  0.00     0.004 A 
ATOM      3  C   UNL A   1      26.817  33.558  -7.587  1.00  0.00     0.005 A 
ATOM      4  C   UNL A   1      26.082  32.751  -6.700  1.00  0.00    -0.034 A 
ATOM      5  C   UNL A   1      26.425  32.759  -5.334  1.00  0.00     0.005 A 
ATOM      6  C   UNL A   1      27.469  33.560  -4.868  1.00  0.00     0.004 A 
ENDROOT
BRANCH   1   7
ATOM      7  C   UNL A   1      29.324  35.237  -5.248  1.00  0.00     0.038 C 
BRANCH   7   8
ATOM      8  C   UNL A   1      30.717  34.665  -5.596  1.00  0.00    -0.013 C 
ATOM      9  C   UNL A   1      31.732  35.786  -5.869  1.00  0.00     0.008 C 
ATOM     10  C   UNL A   1      31.218  33.779  -4.449  1.00  0.00     0.008 C 
ENDBRANCH   7   8
ENDBRANCH   1   7
BRANCH   4  11
ATOM     11  C   UNL A   1      24.951  31.881  -7.226  1.00  0.00     0.126 C 
ATOM     12  C   UNL A   1      25.504  30.520  -7.675  1.00  0.00     0.025 C 
BRANCH  11  13
ATOM     13  C   UNL A   1      23.809  31.693  -6.235  1.00  0.00     0.310 C 
ATOM     14  O   UNL A   1      22.972  32.576  -6.133  1.00  0.00    -0.252 OA
BRANCH  13  15
ATOM     15  O   UNL A   1      23.697  30.610  -5.431  1.00  0.00    -0.481 OA
ATOM     16  H   UNL A   1      23.466  30.651  -4.495  1.00  0.00     0.296 HD
ENDBRANCH  13  15
ENDBRANCH  11  13
ENDBRANCH   4  11
TORSDOF 5
ENDMDL
MODEL 6
REMARK VINA RESULT:    -3.967      4.019      6.929
REMARK INTER + INTRA:          -5.512
REMARK INTER:                  -5.125
REMARK INTRA:                  -0.386
REMARK UNBOUND:                -0.502
REMARK SMILES CC(C)Cc1ccc([C@@H](C)C(=O)O)cc1
REMARK SMILES IDX 5 1 6 2 7 3 8 4 14 5 15 6 4 7 2 8 1 9 3 10 9 11 10 12 11 13
REMARK SMILES IDX 12 14 13 15
REMARK H PARENT 13 16
REMARK Flexibility Score: inf
ROOT
ATOM      1  C   UNL A   1      26.619  31.591  -6.046  1.00  0.00    -0.048 A 
ATOM      2  C   UNL A   1      26.397  32.942  -5.739  1.00  0.00     0.004 A 
ATOM      3  C   UNL A   1      27.462  33.769  -5.371  1.00  0.00     0.005 A 
ATOM      4  C   UNL A   1      28.772  33.262  -5.306  1.00  0.00    -0.034 A 
ATOM      5  C   UNL A   1      28.989  31.903  -5.608  1.00  0.00     0.005 A 
ATOM      6  C   UNL A   1      27.923  31.078  -5.974  1.00  0.00     0.004 A 
ENDROOT
BRANCH   1   7
ATOM      7  C   UNL A   1      25.467  30.696  -6.444  1.00  0.00     0.038 C 
BRANCH   7   8
ATOM      8  C   UNL A   1      24.199  30.943  -5.595  1.00  0.00    -0.013 C 
ATOM      9  C   UNL A   1      23.186  31.822  -6.344  1.00  0.00     0.008 C 
ATOM     10  C   UNL A   1      23.551  29.604  -5.223  1.00  0.00     0.008 C 
ENDBRANCH   7   8
ENDBRANCH   1   7
BRANCH   4  11
ATOM     11  C   UNL A   1      29.920  34.174  -4.901  1.00  0.00     0.126 C 
ATOM     12  C   UNL A   1      31.152  33.331  -4.537  1.00  0.00     0.025 C 
BRANCH  11  13
ATOM     13  C   UNL A   1      30.277  35.216  -5.952  1.00  0.00     0.310 C 
ATOM     14  O   UNL A   1      31.196  34.980  -6.721  1.00  0.00    -0.252 OA
BRANCH  13  15
ATOM     15  O   UNL A   1      29.650  36.411  -6.054  1.00  0.00    -0.481 OA
ATOM     16  H   UNL A   1      28.696  36.516  -6.156  1.00  0.00     0.296 HD
ENDBRANCH  13  15
ENDBRANCH  11  13
ENDBRANCH   4  11
TORSDOF 5
ENDMDL
MODEL 7
REMARK VINA RESULT:    -3.802      2.666      3.851
REMARK INTER + INTRA:          -5.304
REMARK INTER:                  -4.722
REMARK INTRA:                  -0.581
REMARK UNBOUND:                -0.502
REMARK SMILES CC(C)Cc1ccc([C@@H](C)C(=O)O)cc1
REMARK SMILES IDX 5 1 6 2 7 3 8 4 14 5 15 6 4 7 2 8 1 9 3 10 9 11 10 12 11 13
REMARK SMILES IDX 12 14 13 15
REMARK H PARENT 13 16
REMARK Flexibility Score: inf
ROOT
ATOM      1  C   UNL A   1      27.912  33.061  -6.376  1.00  0.00    -0.048 A 
ATOM      2  C   UNL A   1      27.728  32.029  -5.443  1.00  0.00     0.004 A 
ATOM      3  C   UNL A   1      26.463  31.468  -5.247  1.00  0.00     0.005 A 
ATOM      4  C   UNL A   1      25.356  31.927  -5.982  1.00  0.00    -0.034 A 
ATOM      5  C   UNL A   1      25.544  32.968  -6.912  1.00  0.00     0.005 A 
ATOM      6  C   UNL A   1      26.809  33.527  -7.107  1.00  0.00     0.004 A 
ENDROOT
BRANCH   1   7
ATOM      7  C   UNL A   1      29.281  33.667  -6.589  1.00  0.00     0.038 C 
BRANCH   7   8
ATOM      8  C   UNL A   1      29.896  34.222  -5.284  1.00  0.00    -0.013 C 
ATOM      9  C   UNL A   1      31.388  34.543  -5.460  1.00  0.00     0.008 C 
ATOM     10  C   UNL A   1      29.142  35.483  -4.847  1.00  0.00     0.008 C 
ENDBRANCH   7   8
ENDBRANCH   1   7
BRANCH   4  11
ATOM     11  C   UNL A   1      23.985  31.310  -5.754  1.00  0.00     0.126 C 
ATOM     12  C   UNL A   1      22.956  31.965  -6.688  1.00  0.00     0.025 C 
BRANCH  11  13
ATOM     13  C   UNL A   1      23.959  29.795  -5.910  1.00  0.00     0.310 C 
ATOM     14  O   UNL A   1      24.186  29.316  -7.011  1.00  0.00    -0.252 OA
BRANCH  13  15
ATOM     15  O   UNL A   1      23.660  28.951  -4.896  1.00  0.00    -0.481 OA
ATOM     16  H   UNL A   1      22.815  28.495  -4.801  1.00  0.00     0.296 HD
ENDBRANCH  13  15
ENDBRANCH  11  13
ENDBRANCH   4  11
TORSDOF 5
ENDMDL
MODEL 8
REMARK VINA RESULT:    -3.798      2.897      6.106
REMARK INTER + INTRA:          -5.299
REMARK INTER:                  -4.853
REMARK INTRA:                  -0.445
REMARK UNBOUND:                -0.502
REMARK SMILES CC(C)Cc1ccc([C@@H](C)C(=O)O)cc1
REMARK SMILES IDX 5 1 6 2 7 3 8 4 14 5 15 6 4 7 2 8 1 9 3 10 9 11 10 12 11 13
REMARK SMILES IDX 12 14 13 15
REMARK H PARENT 13 16
REMARK Flexibility Score: inf
ROOT
ATOM      1  C   UNL A   1      23.058  32.157  -7.445  1.00  0.00    -0.048 A 
ATOM      2  C   UNL A   1      24.143  32.924  -7.900  1.00  0.00     0.004 A 
ATOM      3  C   UNL A   1      25.366  32.891  -7.224  1.00  0.00     0.005 A 
ATOM      4  C   UNL A   1      25.530  32.089  -6.081  1.00  0.00    -0.034 A 
ATOM      5  C   UNL A   1      24.437  31.328  -5.624  1.00  0.00     0.005 A 
ATOM      6  C   UNL A   1      23.216  31.362  -6.300  1.00  0.00     0.004 A 
ENDROOT
BRANCH   1   7
ATOM      7  C   UNL A   1      21.735  32.192  -8.176  1.00  0.00     0.038 C 
BRANCH   7   8
ATOM      8  C   UNL A   1      20.928  33.478  -7.886  1.00  0.00    -0.013 C 
ATOM      9  C   UNL A   1      19.788  33.665  -8.899  1.00  0.00     0.008 C 
ATOM     10  C   UNL A   1      20.355  33.424  -6.465  1.00  0.00     0.008 C 
ENDBRANCH   7   8
ENDBRANCH   1   7
BRANCH   4  11
ATOM     11  C   UNL A   1      26.866  32.068  -5.355  1.00  0.00     0.126 C 
ATOM     12  C   UNL A   1      27.660  30.817  -5.760  1.00  0.00     0.025 C 
BRANCH  11  13
ATOM     13  C   UNL A   1      27.702  33.323  -5.568  1.00  0.00     0.310 C 
ATOM     14  O   UNL A   1      28.669  33.263  -6.312  1.00  0.00    -0.252 OA
BRANCH  13  15
ATOM     15  O   UNL A   1      27.448  34.497  -4.944  1.00  0.00    -0.481 OA
ATOM     16  H   UNL A   1      27.698  35.362  -5.292  1.00  0.00     0.296 HD
ENDBRANCH  13  15
ENDBRANCH  11  13
ENDBRANCH   4  11
TORSDOF 5
ENDMDL
MODEL 9
REMARK VINA RESULT:    -3.759      4.632      7.538
REMARK INTER + INTRA:          -5.249
REMARK INTER:                  -4.708
REMARK INTRA:                  -0.541
REMARK UNBOUND:                -0.502
REMARK SMILES CC(C)Cc1ccc([C@@H](C)C(=O)O)cc1
REMARK SMILES IDX 5 1 6 2 7 3 8 4 14 5 15 6 4 7 2 8 1 9 3 10 9 11 10 12 11 13
REMARK SMILES IDX 12 14 13 15
REMARK H PARENT 13 16
REMARK Flexibility Score: inf
ROOT
ATOM      1  C   UNL A   1      26.703  31.949  -5.534  1.00  0.00    -0.048 A 
ATOM      2  C   UNL A   1      27.859  31.157  -5.587  1.00  0.00     0.004 A 
ATOM      3  C   UNL A   1      29.125  31.743  -5.491  1.00  0.00     0.005 A 
ATOM      4  C   UNL A   1      29.259  33.134  -5.339  1.00  0.00    -0.034 A 
ATOM      5  C   UNL A   1      28.095  33.926  -5.295  1.00  0.00     0.005 A 
ATOM      6  C   UNL A   1      26.831  33.339  -5.391  1.00  0.00     0.004 A 
ENDROOT
BRANCH   1   7
ATOM      7  C   UNL A   1      25.334  31.315  -5.637  1.00  0.00     0.038 C 
BRANCH   7   8
ATOM      8  C   UNL A   1      24.399  32.070  -6.610  1.00  0.00    -0.013 C 
ATOM      9  C   UNL A   1      24.747  31.762  -8.074  1.00  0.00     0.008 C 
ATOM     10  C   UNL A   1      22.940  31.688  -6.332  1.00  0.00     0.008 C 
ENDBRANCH   7   8
ENDBRANCH   1   7
BRANCH   4  11
ATOM     11  C   UNL A   1      30.642  33.757  -5.241  1.00  0.00     0.126 C 
ATOM     12  C   UNL A   1      30.559  35.099  -4.497  1.00  0.00     0.025 C 
BRANCH  11  13
ATOM     13  C   UNL A   1      31.680  32.851  -4.593  1.00  0.00     0.310 C 
ATOM     14  O   UNL A   1      31.681  32.738  -3.377  1.00  0.00    -0.252 OA
BRANCH  13  15
ATOM     15  O   UNL A   1      32.629  32.190  -5.296  1.00  0.00    -0.481 OA
ATOM     16  H   UNL A   1      33.577  32.263  -5.129  1.00  0.00     0.296 HD
ENDBRANCH  13  15
ENDBRANCH  11  13
ENDBRANCH   4  11
TORSDOF 5
ENDMDL
